  9
 
 O         -0.2110695999        1.5786157661        0.0633845060
 H         -0.1505315169        2.0998802930       -0.7387482620
 H          0.5918618421        1.0280073489        0.0890061282
 O         -1.2776753714       -0.9691375442       -0.0519844079
 H         -1.1657518238       -0.0007704525       -0.0248326941
 H         -1.8841702251       -1.1902043116        0.6560371174
 O          1.4938188171       -0.6001591558       -0.0416205695
 H          0.6267430328       -1.0144260377       -0.1890195652
 H          1.9013097185       -1.0704117178        0.6872576548
